data_bulk-POSCAR-ABp\(2)
_audit_creation_date              2024-06-29
_audit_creation_method            'Materials Studio'
_symmetry_space_group_name_H-M    'P1'
_symmetry_Int_Tables_number       1
_symmetry_cell_setting            triclinic
loop_
_symmetry_equiv_pos_as_xyz
  x,y,z
_cell_length_a                    2.4831
_cell_length_b                    2.4831
_cell_length_c                    6.7478
_cell_angle_alpha                 90.0000
_cell_angle_beta                  90.0000
_cell_angle_gamma                 60.0000
loop_
_atom_site_label
_atom_site_type_symbol
_atom_site_fract_x
_atom_site_fract_y
_atom_site_fract_z
_atom_site_U_iso_or_equiv
_atom_site_adp_type
_atom_site_occupancy
B1     B     0.33331   0.33338   1.24780   0.00000  Uiso   1.00
C1     C     0.33339   0.33322   0.74801   0.00000  Uiso   1.00
C2     C     0.66672   0.66655   0.74795   0.00000  Uiso   1.00
N1     N    -0.00002   0.00005   1.24801   0.00000  Uiso   1.00
